# generated using pymatgen
data_Tl5Te3
_symmetry_space_group_name_H-M   'P 1'
_cell_length_a   9.15781773
_cell_length_b   9.15781773
_cell_length_c   9.15781773
_cell_angle_alpha   120.60325813
_cell_angle_beta   120.60325813
_cell_angle_gamma   88.95826396
_symmetry_Int_Tables_number   1
_chemical_formula_structural   Tl5Te3
_chemical_formula_sum   'Tl10 Te6'
_cell_volume   538.02812411
_cell_formula_units_Z   2
loop_
 _symmetry_equiv_pos_site_id
 _symmetry_equiv_pos_as_xyz
  1  'x, y, z'
loop_
 _atom_site_type_symbol
 _atom_site_label
 _atom_site_symmetry_multiplicity
 _atom_site_fract_x
 _atom_site_fract_y
 _atom_site_fract_z
 _atom_site_occupancy
  Tl  Tl0  1  0.49255300  0.69514200  0.50000000  1
  Tl  Tl1  1  0.50744700  0.30485800  0.50000000  1
  Tl  Tl2  1  0.50000000  0.50000000  0.00000000  1
  Tl  Tl3  1  0.00000000  0.00000000  0.00000000  1
  Tl  Tl4  1  0.19514200  0.99255300  0.50000000  1
  Tl  Tl5  1  0.99255300  0.49255300  0.79741100  1
  Tl  Tl6  1  0.69514200  0.19514200  0.20258900  1
  Tl  Tl7  1  0.30485800  0.80485800  0.79741100  1
  Tl  Tl8  1  0.00744700  0.50744700  0.20258900  1
  Tl  Tl9  1  0.80485800  0.00744700  0.50000000  1
  Te  Te10  1  0.84250600  0.65749400  0.50000000  1
  Te  Te11  1  0.65749400  0.15749400  0.81498800  1
  Te  Te12  1  0.34250600  0.84250600  0.18501200  1
  Te  Te13  1  0.15749400  0.34250600  0.50000000  1
  Te  Te14  1  0.25000000  0.25000000  0.00000000  1
  Te  Te15  1  0.75000000  0.75000000  0.00000000  1
